%nprocshared=24
%mem=24GB
%chk=neutral.chk
#p opt freq=noraman def2svp pbe1pbe em=gd3bj integral=ultrafinegrid

neutral

0 1
C       -4.13938886      -1.34132164       2.20881189
C       -3.63145370      -2.09960653       1.21632263
C       -2.18325287      -2.29124765       1.00125926
C       -1.69908340      -3.60931418       1.09234670
C       -0.35155638      -3.88314080       0.87592982
C        0.51623812      -2.83439531       0.59832247
C        0.05237776      -1.51608304       0.49769949
B        1.12799424      -0.36635072       0.12256152
C        2.23373917      -0.63252077      -1.02485594
C        3.73925798      -0.58428439      -0.57695594
C        4.03211293      -1.60618522       0.51815503
C        4.59759989      -0.88704755      -1.81932244
C        4.12587464       0.80435530      -0.07059686
C        0.98070061       1.07971367       0.76731468
C        1.01488052       2.21506696      -0.06045722
C        0.84365056       3.48119561       0.53030922
Br       0.85570318       5.01557460      -0.59480816
C        0.66390318       3.61185278       1.90529676
C        0.65487600       2.49263880       2.70633882
Br       0.39939888       2.67205063       4.60933745
C        0.78865126       1.21035941       2.13864665
C       -1.34090007      -1.22680274       0.67615540
C       -1.90538710       0.11958933       0.37080436
C       -2.39826820       0.92135596       1.43492537
C       -2.50761426       0.43752644       2.77972455
C       -3.30116797      -0.58778853       3.15515993
C       -2.73030339       2.23084631       1.16849928
C       -2.65673987       2.78631194      -0.12263270
C       -2.27245694       1.96041443      -1.18302198
C       -2.21987749       2.55682540      -2.56794633
C       -1.87576522       0.63479245      -0.96278753
N       -1.44019462      -0.20581208      -2.06353415
C       -1.91239480      -1.41695845      -2.36911187
C       -1.22391587      -1.89825371      -3.46869745
C       -0.32910915      -0.88524977      -3.76814486
N       -0.47217649       0.15608886      -2.89223322
H       -5.20740450      -1.37736246       2.36999929
H       -4.33347214      -2.71167970       0.67425642
H       -2.37073961      -4.42391853       1.33472988
H        0.00682322      -4.86577977       0.98065933
H        1.57351732      -3.07355887       0.47270094
H        2.05777449       0.11061457      -1.80266244
H        2.01967064      -1.63199898      -1.46541549
H        3.83643624      -2.66655563       0.14335363
H        5.09550696      -1.56836408       0.81286676
H        3.43416934      -1.45638653       1.42006838
H        5.69620317      -0.89432264      -1.54099340
H        4.37873643      -1.91728983      -2.21151466
H        4.44088583      -0.13806677      -2.62286551
H        5.20919643       0.89984042       0.09911185
H        3.82849493       1.61140748      -0.79295025
H        3.64840354       1.04189272       0.91315049
H        1.15773975       2.13773833      -1.12943003
H        0.54711454       4.59110418       2.34351985
H        0.77638096       0.33031218       2.79970076
H       -2.03998819       1.01043160       3.61248293
H       -3.46147588      -0.78845136       4.20399686
H       -3.07118210       2.88969898       1.98317652
H       -2.92838309       3.81612783      -0.27780898
H       -1.15962266       2.80691443      -2.81170931
H       -2.63093533       1.83967042      -3.32668992
H       -2.82446328       3.48909337      -2.62321200
H       -2.71078962      -1.93257429      -1.85977894
H       -1.36801047      -2.83154115      -3.96896301
H        0.39549594      -0.89652939      -4.57253819

--Link1--
%nprocshared=24
%mem=24GB
%chk=neutral.chk
#p def2tzvp pbe1pbe integral=ultrafinegrid geom=allcheck guess=read em=gd3bj

