%nprocshared=24
%mem=24GB
%chk=with_hydride.chk
#p opt freq=noraman def2svp pbe1pbe em=gd3bj integral=ultrafinegrid

with_hydride

-1 1
C       -2.01660986      -3.52781164       2.38492989      
N       -1.73189870      -2.26432953       1.98950363      
C       -1.07454587      -2.19965365       0.79614126      
B       -0.69789240      -0.81815618       0.16887470      
C        0.67821262      -0.57981080      -0.56231118      
C        1.76342512      -1.30389231      -0.28623753      
C        3.07152076      -1.02300204      -0.95200351      
C        3.69767524       0.29548628      -0.46279848      
C        5.05836217       0.55244623      -1.11040494      
C        5.68534898       1.84414761      -0.59208794      
C       -1.69079207       0.43674778       0.38265103      
C       -1.37629011       1.44932345       1.31163856      
C       -0.09046136       1.38965830       2.14815214      
F        1.00241861       1.65995667       1.35317368      
F        0.05403452       0.17444496       2.75837378      
F       -0.11547244       2.36317161       3.17121222      
C       -2.23874282       2.51418360       1.47202984      
C       -3.42945882       2.61341378       0.73522976      
C       -4.37098500       3.77694780       0.94681582      
F       -3.69732812       4.92038163       1.31591545      
F       -5.26008574       3.43526541       1.96280965      
F       -5.11957907       4.04358626      -0.17891760      
C       -3.76056910       1.59679633      -0.14787664      
C       -2.90287520       0.50067696      -0.34848163      
C       -3.29605326      -0.55545056      -1.40071545      
F       -4.40509797      -0.20132553      -2.10704707      
F       -2.26484839      -0.80837469      -2.27448272      
F       -3.58163587      -1.73577206      -0.71963770      
C       -0.87603494      -3.46223357       0.21780002      
C       -0.24573749      -3.75844760      -1.11691033      
S       -1.47544822      -4.62564655       1.23490447      
H       -2.53566462      -3.77672608       3.28439985      
H        0.74503020       0.29332555      -1.21583187      
H        1.72395113      -2.13101771       0.41413855      
H        3.77129785      -1.85998477      -0.76034086      
H        2.93059051      -0.93385114      -2.06487622      
H        3.82660150       0.22812954       0.63607829      
H        3.02122786       1.14650330      -0.65234658      
H        5.75183739      -0.28651653      -0.86853412      
H        4.93435222       0.62931523      -2.19503767      
H        6.67473732       2.00017413      -1.06191206      
H        5.00892149       2.71744357      -0.80861244      
H        5.82255864       1.79455902       0.51129751      
H       -2.01734376       3.30680137       2.17196763      
H       -4.71334604       1.64748192      -0.68895624      
H       -0.70493666      -4.66497353      -1.56389762      
H       -0.39418683      -2.92147164      -1.82305240      
H        0.84920043      -3.96055383      -0.99502766      
H       -0.65194176      -0.03440142       0.93934015      

--Link1--
%nprocshared=24
%mem=24GB
%chk=with_hydride.chk
#p def2tzvp pbe1pbe integral=ultrafinegrid geom=allcheck guess=read em=gd3bj

